Version 4
SHEET 1 880 680
WIRE 96 112 32 112
WIRE 240 112 176 112
WIRE 400 112 304 112
WIRE 32 176 32 112
WIRE 400 176 400 112
WIRE 32 272 32 256
WIRE 112 272 32 272
WIRE 400 272 400 256
WIRE 400 272 112 272
WIRE 112 288 112 272
FLAG 112 288 0
SYMBOL ind 80 128 R270
WINDOW 0 32 56 VTop 2
WINDOW 3 5 56 VBottom 2
SYMATTR InstName L1
SYMATTR Value 0.5e-3
SYMBOL cap 240 128 R270
WINDOW 0 32 32 VTop 2
WINDOW 3 0 32 VBottom 2
SYMATTR InstName C1
SYMATTR Value 5e-6
SYMBOL res 384 160 R0
SYMATTR InstName R1
SYMATTR Value 1
SYMBOL voltage 32 160 R0
WINDOW 123 24 124 Left 2
WINDOW 39 0 0 Left 0
SYMATTR Value2 AC 1
SYMATTR InstName V1
SYMATTR Value SINE(0 110 318.31)
TEXT -8 336 Left 2 !;tran 0 1 0.95 100
TEXT 8 400 Left 2 !.ac dec 10000 1000 100000
