Version 4
SHEET 1 1612 680
WIRE 64 80 -32 80
WIRE 240 80 144 80
WIRE 352 80 240 80
WIRE 480 80 432 80
WIRE -32 144 -32 80
WIRE 240 144 240 80
WIRE 480 160 480 80
WIRE -32 272 -32 224
WIRE 64 272 -32 272
WIRE 240 272 240 208
WIRE 240 272 144 272
WIRE 480 272 480 240
WIRE 480 272 240 272
WIRE -32 288 -32 272
FLAG -32 288 0
SYMBOL res 160 64 R90
WINDOW 0 0 56 VBottom 2
WINDOW 3 32 56 VTop 2
SYMATTR InstName R1
SYMATTR Value 100
SYMBOL res 464 144 R0
SYMATTR InstName R2
SYMATTR Value 200
SYMBOL cap 224 144 R0
SYMATTR InstName C1
SYMATTR Value 2E-3
SYMBOL ind2 48 288 R270
WINDOW 0 32 56 VTop 2
WINDOW 3 4 56 VBottom 2
SYMATTR InstName L3
SYMATTR Value 3E-3
SYMBOL ind2 448 64 R90
WINDOW 0 4 56 VBottom 2
WINDOW 3 32 56 VTop 2
SYMATTR InstName L4
SYMATTR Value 4E-3
SYMBOL voltage -32 128 R0
WINDOW 123 24 124 Left 2
WINDOW 39 0 0 Left 0
SYMATTR InstName V1
SYMATTR Value SINE(0 20 44.87)
TEXT 248 328 Left 2 !k L3 L4 0.5
TEXT -66 348 Left 2 !;ac dec 100 0.01 1000000
TEXT 672 352 Left 2 !#Como simular und mutuas https://www.youtube.com/watch?v=qXeingOEwms
TEXT -68 372 Left 2 !.tran 0 0.1 0 1000
